Version 4
SHEET 1 880 680
WIRE -960 -64 -1072 -64
WIRE -848 -64 -960 -64
WIRE -384 -64 -848 -64
WIRE -352 -64 -384 -64
WIRE 304 -32 224 -32
WIRE 464 -32 384 -32
WIRE -608 0 -768 0
WIRE -384 0 -384 -64
WIRE -960 16 -960 -64
WIRE -848 32 -848 -64
WIRE -688 32 -688 -32
WIRE -768 48 -768 0
WIRE -720 48 -768 48
WIRE -608 64 -608 0
WIRE -608 64 -656 64
WIRE -560 64 -608 64
WIRE -432 64 -480 64
WIRE -720 80 -768 80
WIRE 48 80 0 80
WIRE 576 80 528 80
WIRE -1072 96 -1072 -64
WIRE 48 112 0 112
WIRE 336 112 336 80
WIRE 576 112 528 112
WIRE 736 112 688 112
WIRE 304 128 176 128
WIRE -960 144 -960 96
WIRE -848 144 -848 96
WIRE -848 144 -960 144
WIRE -768 144 -768 80
WIRE -768 144 -848 144
WIRE -688 144 -688 96
WIRE -432 144 -432 64
WIRE -384 144 -384 64
WIRE -384 144 -432 144
WIRE -352 144 -384 144
WIRE 48 144 16 144
WIRE 464 144 464 -32
WIRE 464 144 368 144
WIRE 576 144 464 144
WIRE 224 160 224 -32
WIRE 304 160 224 160
WIRE 48 176 -48 176
WIRE 736 176 736 112
WIRE -960 192 -960 144
WIRE -848 192 -848 144
WIRE -688 192 -688 144
WIRE -768 208 -768 144
WIRE -720 208 -768 208
WIRE -384 208 -384 144
WIRE -48 208 -48 176
WIRE 224 208 224 160
WIRE 336 208 336 176
WIRE -608 224 -656 224
WIRE -560 224 -608 224
WIRE -432 224 -432 144
WIRE -432 224 -480 224
WIRE -720 240 -768 240
WIRE -768 288 -768 240
WIRE -608 288 -608 224
WIRE -608 288 -768 288
WIRE -688 320 -688 256
WIRE -48 336 -48 288
WIRE 16 336 16 144
WIRE 224 336 224 288
WIRE 736 336 736 256
WIRE -1072 352 -1072 176
WIRE -960 352 -960 272
WIRE -960 352 -1072 352
WIRE -848 352 -848 256
WIRE -848 352 -960 352
WIRE -384 352 -384 272
WIRE -384 352 -848 352
WIRE -352 352 -384 352
FLAG 0 80 +V
FLAG 0 112 -V
FLAG -48 336 0
FLAG 16 336 0
FLAG 224 336 0
FLAG 736 336 0
FLAG 528 80 +V
FLAG 528 112 -V
FLAG 336 208 +V
FLAG 336 80 -V
FLAG -688 -32 +V
FLAG -688 320 +V
FLAG -688 144 -V
FLAG -352 144 0
FLAG -352 -64 +V
FLAG -352 352 -V
SYMBOL preamp_9vdual_opamp_NE5532 112 128 R0
SYMATTR InstName X1
SYMBOL voltage -48 192 R0
WINDOW 123 0 0 Left 0
WINDOW 39 0 0 Left 0
SYMATTR InstName V3
SYMATTR Value SINE(0 100m 500)
SYMBOL res 208 192 R0
SYMATTR InstName R1
SYMATTR Value 10k
SYMBOL res 400 -48 R90
WINDOW 0 0 56 VBottom 2
WINDOW 3 32 56 VTop 2
SYMATTR InstName R2
SYMATTR Value 20k
SYMBOL output_v2_darlington 624 112 R0
SYMATTR InstName X2
SYMBOL res 720 160 R0
SYMATTR InstName R3
SYMATTR Value 30
SYMBOL OpAmps\\AD8655 336 208 M180
SYMATTR InstName U1
SYMBOL OpAmps\\LT1457 -688 64 R0
SYMATTR InstName U2
SYMBOL OpAmps\\LT1457 -688 224 M180
SYMATTR InstName U3
SYMBOL res -464 48 R90
WINDOW 0 0 56 VBottom 2
WINDOW 3 32 56 VTop 2
SYMATTR InstName R4
SYMATTR Value 10k
SYMBOL res -464 208 R90
WINDOW 0 0 56 VBottom 2
WINDOW 3 32 56 VTop 2
SYMATTR InstName R5
SYMATTR Value 10k
SYMBOL cap -864 32 R0
SYMATTR InstName C3
SYMATTR Value 100µ
SYMBOL cap -864 192 R0
SYMATTR InstName C4
SYMATTR Value 100µ
SYMBOL res -976 176 R0
SYMATTR InstName R6
SYMATTR Value 10k
SYMBOL res -976 0 R0
SYMATTR InstName R7
SYMATTR Value 10k
SYMBOL voltage -1072 80 R0
WINDOW 123 0 0 Left 0
WINDOW 39 0 0 Left 0
SYMATTR InstName V1
SYMATTR Value 9
SYMBOL cap -400 0 R0
SYMATTR InstName C1
SYMATTR Value 100µ
SYMBOL cap -400 208 R0
SYMATTR InstName C2
SYMATTR Value 100µ
TEXT 400 328 Left 2 !.tran 0 100m 0 1m
