Version 4
SHEET 1 1848 680
WIRE -240 96 -240 32
WIRE -160 96 -240 96
WIRE -16 96 -96 96
WIRE 288 128 208 128
WIRE 448 128 368 128
WIRE 592 128 528 128
WIRE 720 176 720 32
WIRE 768 176 720 176
WIRE 1056 176 1056 32
WIRE 1104 176 1056 176
WIRE 1344 176 1232 176
WIRE 1408 176 1408 32
WIRE 1456 176 1408 176
WIRE -576 192 -576 176
WIRE -240 192 -240 96
WIRE -176 192 -240 192
WIRE -576 208 -576 192
WIRE -16 208 -16 96
WIRE -16 208 -80 208
WIRE 32 208 -16 208
WIRE 208 208 208 128
WIRE 208 208 160 208
WIRE 592 208 592 128
WIRE 768 208 592 208
WIRE 1104 208 928 208
WIRE 1344 208 1344 176
WIRE 1344 208 1232 208
WIRE 1456 208 1344 208
WIRE 1728 208 1568 208
WIRE -176 224 -240 224
WIRE 768 240 720 240
WIRE 1104 240 1056 240
WIRE 1280 240 1232 240
WIRE 1456 240 1408 240
WIRE 1728 240 1728 208
WIRE 208 288 208 208
WIRE 288 288 208 288
WIRE 448 288 368 288
WIRE 592 288 528 288
WIRE -240 304 -240 224
WIRE -160 304 -240 304
WIRE -16 304 -16 208
WIRE -16 304 -96 304
WIRE -240 384 -240 304
WIRE 32 384 32 208
WIRE 160 384 160 208
WIRE 720 384 720 240
WIRE 848 384 848 272
WIRE 1056 384 1056 240
WIRE 1168 384 1168 304
WIRE 1280 384 1280 240
WIRE 1408 384 1408 240
WIRE 1728 384 1728 320
FLAG 32 384 0
FLAG 160 384 0
FLAG 720 32 +4.5V
FLAG 720 384 -4.5V
FLAG 848 384 0
FLAG 1056 32 +4.5V
FLAG 1056 384 -4.5V
FLAG 1168 384 0
FLAG 1408 32 +4.5V
FLAG 1408 384 -4.5V
FLAG 1728 384 0
FLAG 1280 384 0
FLAG -576 192 0
FLAG -576 96 +4.5V
FLAG -576 288 -4.5V
SYMBOL PSU -128 208 R0
SYMATTR InstName PSU
SYMBOL cap -96 80 R90
WINDOW 0 0 32 VBottom 2
WINDOW 3 31 20 VLeft 2
SYMATTR InstName C1
SYMATTR Value 100µ
SYMBOL cap -96 288 R90
WINDOW 0 0 32 VBottom 2
WINDOW 3 31 20 VLeft 2
SYMATTR InstName C2
SYMATTR Value 100µ
SYMBOL voltage 384 128 R90
WINDOW 0 -32 56 VBottom 2
WINDOW 3 32 56 VTop 2
WINDOW 123 60 56 VTop 2
WINDOW 39 0 0 Left 0
SYMATTR InstName V2
SYMATTR Value SINE(0 100m 400)
SYMATTR Value2 AC 1
SYMBOL OPS 1504 208 R0
SYMATTR InstName OPS
SYMBOL IPS 848 208 R0
SYMATTR InstName IPS
SYMBOL bv 384 288 R90
WINDOW 0 -32 56 VBottom 2
WINDOW 3 32 56 VTop 2
SYMATTR InstName B1
SYMATTR Value V=(white(2e5*time)/50)
SYMBOL res 544 112 R90
WINDOW 0 0 56 VBottom 2
WINDOW 3 32 56 VTop 2
SYMATTR InstName R1
SYMATTR Value 100
SYMBOL GS 1168 224 R0
SYMATTR InstName GS
SYMBOL res 1712 224 R0
SYMATTR InstName R3
SYMATTR Value 20
SYMBOL res 544 272 R90
WINDOW 0 0 56 VBottom 2
WINDOW 3 32 56 VTop 2
SYMATTR InstName R2
SYMATTR Value 100
SYMBOL voltage -576 80 R0
WINDOW 123 0 0 Left 0
WINDOW 39 0 0 Left 0
SYMATTR InstName V3
SYMATTR Value 4.5
SYMBOL voltage -576 192 R0
WINDOW 123 0 0 Left 0
WINDOW 39 0 0 Left 0
SYMATTR InstName V4
SYMATTR Value 4.5
TEXT 616 528 Left 2 !.tran 0 10m 5m
TEXT 832 -88 Center 2 ;Input Stage
TEXT 1168 -88 Center 2 ;Voltage Amplifier Stage
TEXT 1488 -88 Center 2 ;Output Stage
TEXT 384 -88 Center 2 ;Corrupted Input Signal
TEXT -168 -88 Center 2 ;Power Supply
TEXT 1744 -88 Center 2 ;Load
TEXT 704 -288 Center 5 ;Guitar Headphone Amplifier
TEXT 704 -224 Center 3 ;EN2091 - Laboratory Practice and Projects
TEXT 696 -176 Center 2 ;Team Spark07
TEXT -616 -16 Left 2 ;supply
RECTANGLE Normal 1600 -64 1376 464 2
RECTANGLE Normal 1312 -64 1024 464 2
RECTANGLE Normal 960 -64 688 464 2
RECTANGLE Normal 64 -64 -384 464 2
RECTANGLE Normal 624 -64 128 464 2
RECTANGLE Normal 1808 -64 1664 464 2
RECTANGLE Normal -448 0 -688 368 2
