Version 4
SHEET 1 880 680
WIRE 176 -64 112 -64
WIRE 320 -64 256 -64
WIRE 112 48 112 -64
WIRE 176 48 112 48
WIRE 320 48 256 48
WIRE 208 96 48 96
WIRE 208 128 208 96
WIRE 112 144 112 48
WIRE 176 144 112 144
WIRE 320 160 240 160
WIRE 176 176 48 176
WIRE 208 224 208 192
WIRE 208 224 48 224
WIRE 112 272 112 144
WIRE 112 400 112 352
WIRE 112 400 48 400
FLAG 48 176 IN
IOPIN 48 176 In
FLAG 48 96 +V
IOPIN 48 96 In
FLAG 48 224 -V
IOPIN 48 224 In
FLAG 48 400 GND
IOPIN 48 400 In
FLAG 320 48 x2
IOPIN 320 48 In
FLAG 320 -64 x5
IOPIN 320 -64 In
FLAG 320 160 OUT
IOPIN 320 160 Out
SYMBOL res 272 -80 R90
WINDOW 0 0 56 VBottom 2
WINDOW 3 32 56 VTop 2
SYMATTR InstName R2
SYMATTR Value 15k
SYMBOL res 96 256 R0
SYMATTR InstName R3
SYMATTR Value 10k
SYMBOL res 272 32 R90
WINDOW 0 0 56 VBottom 2
WINDOW 3 32 56 VTop 2
SYMATTR InstName R1
SYMATTR Value 6k
SYMBOL OpAmps\\AD8655 208 96 R0
SYMATTR InstName U1
